.include "nominal.jsim"
.include "8clocks.jsim"
.include "stdcell.jsim"

Xdriver1 clk1 a inverter
Xdriver2 clk2 b inverter
Xtest a b z xor2

.tran 20ns

.plot a
.plot b
.plot z